@<TRIPOS>MOLECULE
Polymer
103 107 1 0 1
SMALL
NO_CHARGES
@<TRIPOS>CRYSIN
   23.8263    12.9459    17.7667    90.0000    90.0000    90.0000  1  1
@<TRIPOS>ATOM
       1 C            3.3661     0.4671    -0.9629 C             1 Polymer 
       2 O            3.0219     0.8173    -2.0815 O             1 Polymer 
       3 C            4.6089     0.8289    -0.2946 C             1 Polymer 
       4 C            5.7661     1.6145    -0.6264 C             1 Polymer 
       5 S            6.9730     1.5172     0.6980 S             1 Polymer 
       6 C            5.8550     0.4255     1.6980 C             1 Polymer 
       7 C            4.6293     0.2381     0.8687 C             1 Polymer 
       8 C            3.3861    -0.5315     0.9789 C             1 Polymer 
       9 O            3.0518    -1.2305     1.9238 O             1 Polymer 
      10 N            2.6581    -0.3571    -0.1538 N             1 Polymer 
      11 C            1.3658    -0.9514    -0.4537 C             1 Polymer 
      12 C            0.3075     0.1500    -0.5882 C             1 Polymer 
      13 C           -1.0933    -0.3569    -0.9490 C             1 Polymer 
      14 C           -1.6600    -1.3447     0.0903 C             1 Polymer 
      15 C           -3.1530    -1.6557    -0.1198 C             1 Polymer 
      16 C           -4.1260    -0.6839     0.5875 C             1 Polymer 
      17 C           -4.0105     0.7922     0.1905 C             1 Polymer 
      18 C           -5.0634     1.6371     0.9009 C             1 Polymer 
      19 H            1.4401    -1.5401    -1.3940 H             1 Polymer 
      20 H            1.0727    -1.6394     0.3666 H             1 Polymer 
      21 H            0.2540     0.7118     0.3694 H             1 Polymer 
      22 H            0.6111     0.8609    -1.3860 H             1 Polymer 
      23 H           -1.0846    -0.8454    -1.9484 H             1 Polymer 
      24 H           -1.7199     0.5430    -1.0468 H             1 Polymer 
      25 H           -1.5066    -0.9954     1.1331 H             1 Polymer 
      26 H           -1.0908    -2.2901    -0.0427 H             1 Polymer 
      27 H           -3.3754    -1.7577    -1.2047 H             1 Polymer 
      28 H           -3.3548    -2.6436     0.3497 H             1 Polymer 
      29 H           -5.1582    -1.0356     0.3693 H             1 Polymer 
      30 H           -3.9635    -0.7599     1.6857 H             1 Polymer 
      31 H           -4.1400     0.9004    -0.9081 H             1 Polymer 
      32 H           -3.0226     1.1868     0.5040 H             1 Polymer 
      33 H           -4.9402     1.5583     2.0026 H             1 Polymer 
      34 H           -4.9439     2.7016     0.6076 H             1 Polymer 
      35 H           -6.0837     1.3010     0.6204 H             1 Polymer 
      36 S            6.9581     1.2053     4.1060 S             1 Polymer 
      37 C            6.0932     1.8042     5.4052 C             1 Polymer 
      38 C            6.5618     2.1685     6.6790 C             1 Polymer 
      39 O            7.8640     2.1275     7.0692 O             1 Polymer 
      40 C            8.9732     2.4702     6.3185 C             1 Polymer 
      41 C           10.2631     2.2601     7.1394 C             1 Polymer 
      42 C           10.2311     3.0262     8.4868 C             1 Polymer 
      43 C           10.0492     4.5366     8.3344 C             1 Polymer 
      44 C           10.5325     0.7557     7.4253 C             1 Polymer 
      45 C           10.6557    -0.1569     6.1850 C             1 Polymer 
      46 C           11.7738     0.2756     5.2236 C             1 Polymer 
      47 C           11.8986    -0.6943     4.0518 C             1 Polymer 
      48 C            5.6008     2.5803     7.6064 C             1 Polymer 
      49 C            5.9058     2.9853     8.9694 C             1 Polymer 
      50 C            4.7757     3.3528     9.6577 C             1 Polymer 
      51 S            3.2664     3.2290     8.7022 S             1 Polymer 
      52 C            4.2416     2.6512     7.2949 C             1 Polymer 
      53 C            3.7692     2.2892     5.9927 C             1 Polymer 
      54 O            2.4574     2.3027     5.6122 O             1 Polymer 
      55 C            1.3564     2.4501     6.4374 C             1 Polymer 
      56 C            0.0298     2.2457     5.6750 C             1 Polymer 
      57 C           -0.2748     3.4894     4.8030 C             1 Polymer 
      58 C           -1.6766     3.4711     4.1859 C             1 Polymer 
      59 C            0.0313     0.9390     4.8363 C             1 Polymer 
      60 C            0.3731    -0.3240     5.6507 C             1 Polymer 
      61 C            0.3982    -1.5995     4.7940 C             1 Polymer 
      62 C           -0.9718    -1.9857     4.2385 C             1 Polymer 
      63 C            4.7381     1.8558     5.0567 C             1 Polymer 
      64 C            4.4877     1.4114     3.7340 C             1 Polymer 
      65 C            5.6566     1.0035     3.0722 C             1 Polymer 
      66 H            8.8838     3.5340     6.0155 H             1 Polymer 
      67 H            9.0573     1.8903     5.3905 H             1 Polymer 
      68 H           11.1137     2.6582     6.5465 H             1 Polymer 
      69 H           11.1955     2.8561     9.0138 H             1 Polymer 
      70 H            9.4162     2.6318     9.1322 H             1 Polymer 
      71 H           10.0879     5.0126     9.3368 H             1 Polymer 
      72 H           10.8593     4.9610     7.7051 H             1 Polymer 
      73 H            9.0634     4.7786     7.8873 H             1 Polymer 
      74 H            9.7172     0.3511     8.0646 H             1 Polymer 
      75 H           11.4825     0.6727     7.9981 H             1 Polymer 
      76 H            9.6896    -0.2032     5.6405 H             1 Polymer 
      77 H           10.8738    -1.1857     6.5467 H             1 Polymer 
      78 H           12.7426     0.3096     5.7674 H             1 Polymer 
      79 H           11.5562     1.2826     4.8107 H             1 Polymer 
      80 H           10.9475    -0.7319     3.4786 H             1 Polymer 
      81 H           12.7088    -0.3544     3.3725 H             1 Polymer 
      82 H           12.1460    -1.7134     4.4177 H             1 Polymer 
      83 H            6.8993     3.0038     9.3974 H             1 Polymer 
      84 H            1.4124     1.6837     7.2395 H             1 Polymer 
      85 H            1.3448     3.4524     6.9125 H             1 Polymer 
      86 H           -0.7699     2.1845     6.4479 H             1 Polymer 
      87 H            0.4876     3.5984     4.0019 H             1 Polymer 
      88 H           -0.2288     4.3936     5.4500 H             1 Polymer 
      89 H           -1.8518     4.4221     3.6405 H             1 Polymer 
      90 H           -2.4457     3.3788     4.9834 H             1 Polymer 
      91 H           -1.7957     2.6412     3.4617 H             1 Polymer 
      92 H            0.7695     1.0370     4.0100 H             1 Polymer 
      93 H           -0.9746     0.8095     4.3958 H             1 Polymer 
      94 H           -0.3454    -0.4465     6.4902 H             1 Polymer 
      95 H            1.3937    -0.2175     6.0733 H             1 Polymer 
      96 H            0.7533    -2.4368     5.4329 H             1 Polymer 
      97 H            1.1197    -1.4743     3.9577 H             1 Polymer 
      98 H           -0.8810    -2.9332     3.6673 H             1 Polymer 
      99 H           -1.6913    -2.1383     5.0705 H             1 Polymer 
     100 H           -1.3639    -1.2112     3.5510 H             1 Polymer 
     101 H            3.5011     1.3697     3.2911 H             1 Polymer 
     102 H            5.9129     2.1327    -1.5640 H             1 Polymer 
     103 H            4.7962     3.6901    10.6853 H             1 Polymer 
@<TRIPOS>BOND
       1        2        1 1
       2        3        1 1
       3       10        1 1
       4        4        3 1
       5        7        3 1
       6        5        4 1
       7      102        4 1
       8        6        5 1
       9        7        6 1
      10       65        6 1
      11        8        7 1
      12        9        8 1
      13       10        8 1
      14       11       10 1
      15       12       11 1
      16       19       11 1
      17       20       11 1
      18       13       12 1
      19       21       12 1
      20       22       12 1
      21       14       13 1
      22       23       13 1
      23       24       13 1
      24       15       14 1
      25       25       14 1
      26       26       14 1
      27       16       15 1
      28       27       15 1
      29       28       15 1
      30       17       16 1
      31       29       16 1
      32       30       16 1
      33       18       17 1
      34       31       17 1
      35       32       17 1
      36       33       18 1
      37       34       18 1
      38       35       18 1
      39       37       36 1
      40       65       36 1
      41       38       37 1
      42       63       37 1
      43       39       38 1
      44       48       38 1
      45       40       39 1
      46       41       40 1
      47       66       40 1
      48       67       40 1
      49       42       41 1
      50       44       41 1
      51       68       41 1
      52       43       42 1
      53       69       42 1
      54       70       42 1
      55       71       43 1
      56       72       43 1
      57       73       43 1
      58       45       44 1
      59       74       44 1
      60       75       44 1
      61       46       45 1
      62       76       45 1
      63       77       45 1
      64       47       46 1
      65       78       46 1
      66       79       46 1
      67       80       47 1
      68       81       47 1
      69       82       47 1
      70       49       48 1
      71       52       48 1
      72       50       49 1
      73       83       49 1
      74       51       50 1
      75      103       50 1
      76       52       51 1
      77       53       52 1
      78       54       53 1
      79       63       53 1
      80       55       54 1
      81       56       55 1
      82       84       55 1
      83       85       55 1
      84       57       56 1
      85       59       56 1
      86       86       56 1
      87       58       57 1
      88       87       57 1
      89       88       57 1
      90       89       58 1
      91       90       58 1
      92       91       58 1
      93       60       59 1
      94       92       59 1
      95       93       59 1
      96       61       60 1
      97       94       60 1
      98       95       60 1
      99       62       61 1
     100       96       61 1
     101       97       61 1
     102       98       62 1
     103       99       62 1
     104      100       62 1
     105       64       63 1
     106       65       64 1
     107      101       64 1
@<TRIPOS>SUBSTRUCTURE
       1 Polymer         1 RESIDUE    0 **** ROOT      0
