@<TRIPOS>MOLECULE
Polymer
507 531 1 0 1
SMALL
NO_CHARGES
@<TRIPOS>CRYSIN
   24.7974    21.1646    60.7278    90.0000    90.0000    90.0000  1  1
@<TRIPOS>ATOM
       1 C            3.3423     0.3072    -1.0971 C             1 Polymer 
       2 O            3.0015     0.6863    -2.2072 O             1 Polymer 
       3 C            4.6080     0.5971    -0.4390 C             1 Polymer 
       4 C            5.7999     1.3277    -0.7716 C             1 Polymer 
       5 S            7.0330     1.0865     0.5092 S             1 Polymer 
       6 C            5.8418     0.1029     1.5418 C             1 Polymer 
       7 C            4.6095    -0.0076     0.7176 C             1 Polymer 
       8 C            3.3358    -0.7155     0.8329 C             1 Polymer 
       9 O            2.9790    -1.4095     1.7724 O             1 Polymer 
      10 N            2.6076    -0.4979    -0.2909 N             1 Polymer 
      11 C            1.2937    -1.0368    -0.5845 C             1 Polymer 
      12 C            0.2748     0.1018    -0.6718 C             1 Polymer 
      13 C           -1.1472    -0.3552    -1.0108 C             1 Polymer 
      14 C           -1.7144    -1.3591     0.0138 C             1 Polymer 
      15 C           -3.2152    -1.6360    -0.1790 C             1 Polymer 
      16 C           -4.1572    -0.6633     0.5663 C             1 Polymer 
      17 C           -4.0152     0.8196     0.2056 C             1 Polymer 
      18 C           -5.0453     1.6658     0.9466 C             1 Polymer 
      19 H            1.3334    -1.6071    -1.5393 H             1 Polymer 
      20 H            0.9923    -1.7353     0.2241 H             1 Polymer 
      21 H            0.2596     0.6393     0.3023 H             1 Polymer 
      22 H            0.5870     0.8223    -1.4567 H             1 Polymer 
      23 H           -1.1732    -0.8158    -2.0232 H             1 Polymer 
      24 H           -1.7495     0.5639    -1.0688 H             1 Polymer 
      25 H           -1.5339    -1.0439     1.0643 H             1 Polymer 
      26 H           -1.1700    -2.3130    -0.1566 H             1 Polymer 
      27 H           -3.4554    -1.7063    -1.2625 H             1 Polymer 
      28 H           -3.4289    -2.6315     0.2688 H             1 Polymer 
      29 H           -5.1987    -0.9885     0.3524 H             1 Polymer 
      30 H           -3.9819    -0.7709     1.6598 H             1 Polymer 
      31 H           -4.1521     0.9587    -0.8886 H             1 Polymer 
      32 H           -3.0167     1.1863     0.5200 H             1 Polymer 
      33 H           -4.9151     1.5554     2.0447 H             1 Polymer 
      34 H           -4.9075     2.7350     0.6799 H             1 Polymer 
      35 H           -6.0739     1.3564     0.6655 H             1 Polymer 
      36 S            7.0144     0.9305     3.8873 S             1 Polymer 
      37 C            6.2316     1.8350     5.0456 C             1 Polymer 
      38 C            6.7719     2.3312     6.2259 C             1 Polymer 
      39 O            8.0359     2.1084     6.6399 O             1 Polymer 
      40 C            9.1834     2.5030     6.0123 C             1 Polymer 
      41 C           10.3978     2.2312     6.9340 C             1 Polymer 
      42 C           10.2916     2.9655     8.2999 C             1 Polymer 
      43 C           10.1777     4.4877     8.1947 C             1 Polymer 
      44 C           10.5758     0.7174     7.2243 C             1 Polymer 
      45 C           10.6995    -0.1881     5.9876 C             1 Polymer 
      46 C           11.8537     0.2209     5.0650 C             1 Polymer 
      47 C           11.9811    -0.7456     3.8943 C             1 Polymer 
      48 C            5.9514     3.1041     7.0114 C             1 Polymer 
      49 C            6.4445     3.6914     8.2307 C             1 Polymer 
      50 C            5.4421     4.4219     8.9893 C             1 Polymer 
      51 S            3.9318     4.5392     7.9133 S             1 Polymer 
      52 C            4.6319     3.3671     6.7125 C             1 Polymer 
      53 C            4.0329     2.7793     5.5382 C             1 Polymer 
      54 O            2.6982     2.8487     5.2255 O             1 Polymer 
      55 C            1.6714     2.8146     6.1662 C             1 Polymer 
      56 C            0.2702     2.5045     5.5744 C             1 Polymer 
      57 C           -0.2377     3.7080     4.7469 C             1 Polymer 
      58 C           -1.7026     3.5737     4.3078 C             1 Polymer 
      59 C            0.2318     1.1707     4.7708 C             1 Polymer 
      60 C            0.6121    -0.0743     5.6021 C             1 Polymer 
      61 C            0.5581    -1.3849     4.7956 C             1 Polymer 
      62 C           -0.8483    -1.7770     4.3383 C             1 Polymer 
      63 C            4.9000     2.0336     4.6940 C             1 Polymer 
      64 C            4.5753     1.4244     3.4546 C             1 Polymer 
      65 C            5.6872     0.7945     2.8713 C             1 Polymer 
      66 H            9.1242     3.5893     5.7912 H             1 Polymer 
      67 H            9.2973     1.9927     5.0363 H             1 Polymer 
      68 H           11.3052     2.6110     6.4193 H             1 Polymer 
      69 H           11.2045     2.7439     8.8951 H             1 Polymer 
      70 H            9.4262     2.5748     8.8759 H             1 Polymer 
      71 H           10.1419     4.9218     9.2170 H             1 Polymer 
      72 H           11.0556     4.9035     7.6596 H             1 Polymer 
      73 H            9.2500     4.7947     7.6720 H             1 Polymer 
      74 H            9.7128     0.3483     7.8228 H             1 Polymer 
      75 H           11.4917     0.5852     7.8422 H             1 Polymer 
      76 H            9.7455    -0.1872     5.4189 H             1 Polymer 
      77 H           10.8679    -1.2265     6.3487 H             1 Polymer 
      78 H           12.8071     0.2296     5.6360 H             1 Polymer 
      79 H           11.6709     1.2356     4.6533 H             1 Polymer 
      80 H           11.0392    -0.7618     3.3051 H             1 Polymer 
      81 H           12.8106    -0.4178     3.2337 H             1 Polymer 
      82 H           12.2001    -1.7691     4.2653 H             1 Polymer 
      83 H            7.4489     3.5697     8.5954 H             1 Polymer 
      84 H            1.8776     1.9866     6.8592 H             1 Polymer 
      85 H            1.6305     3.7573     6.7469 H             1 Polymer 
      86 H           -0.4222     2.3989     6.4411 H             1 Polymer 
      87 H            0.4066     3.8668     3.8574 H             1 Polymer 
      88 H           -0.1826     4.6153     5.3885 H             1 Polymer 
      89 H           -2.0227     4.5063     3.7983 H             1 Polymer 
      90 H           -2.3598     3.4142     5.1903 H             1 Polymer 
      91 H           -1.8447     2.7411     3.5905 H             1 Polymer 
      92 H            0.9024     1.2478     3.8887 H             1 Polymer 
      93 H           -0.8028     1.0120     4.4155 H             1 Polymer 
      94 H           -0.0546    -0.1604     6.4888 H             1 Polymer 
      95 H            1.6574     0.0266     5.9565 H             1 Polymer 
      96 H            0.9380    -2.2039     5.4450 H             1 Polymer 
      97 H            1.2275    -1.3066     3.9128 H             1 Polymer 
      98 H           -0.8003    -2.7491     3.8027 H             1 Polymer 
      99 H           -1.5203    -1.8916     5.2154 H             1 Polymer 
     100 H           -1.2745    -1.0291     3.6409 H             1 Polymer 
     101 H            3.5926     1.4742     2.9983 H             1 Polymer 
     102 C            3.2461     2.0271     9.9930 C             1 Polymer 
     103 O            2.7907     2.3371     8.9203 O             1 Polymer 
     104 C            4.4277     2.5727    10.5989 C             1 Polymer 
     105 C            5.2641     3.7716    10.3780 C             1 Polymer 
     106 S            6.7808     3.4393    11.3554 S             1 Polymer 
     107 C            5.8899     2.2218    12.4310 C             1 Polymer 
     108 C            4.6485     1.8879    11.6901 C             1 Polymer 
     109 C            3.5236     0.9433    11.8460 C             1 Polymer 
     110 O            3.3307     0.1800    12.7791 O             1 Polymer 
     111 N            2.6884     1.1071    10.7926 N             1 Polymer 
     112 C            1.3919     0.5159    10.5191 C             1 Polymer 
     113 C            0.3740     1.6842    10.4294 C             1 Polymer 
     114 C           -1.0055     1.3397     9.9122 C             1 Polymer 
     115 C           -1.7388     0.3844    10.8457 C             1 Polymer 
     116 C           -3.2348     0.3028    10.5182 C             1 Polymer 
     117 C           -4.1071     1.3769    11.2145 C             1 Polymer 
     118 C           -3.8103     2.8471    10.8789 C             1 Polymer 
     119 C           -4.7989     3.7756    11.5783 C             1 Polymer 
     120 H            1.4406    -0.0250     9.5479 H             1 Polymer 
     121 H            1.0990    -0.1981    11.3175 H             1 Polymer 
     122 H            0.3063     2.1844    11.4197 H             1 Polymer 
     123 H            0.7070     2.4580     9.7162 H             1 Polymer 
     124 H           -0.9525     0.9163     8.8837 H             1 Polymer 
     125 H           -1.5261     2.3038     9.8124 H             1 Polymer 
     126 H           -1.6181     0.6646    11.9141 H             1 Polymer 
     127 H           -1.2655    -0.6094    10.6915 H             1 Polymer 
     128 H           -3.3910     0.2818     9.4165 H             1 Polymer 
     129 H           -3.5975    -0.6654    10.9226 H             1 Polymer 
     130 H           -5.1608     1.1614    10.9367 H             1 Polymer 
     131 H           -4.0063     1.2487    12.3147 H             1 Polymer 
     132 H           -3.8791     3.0076     9.7806 H             1 Polymer 
     133 H           -2.8043     3.1314    11.2489 H             1 Polymer 
     134 H           -4.7241     3.6528    12.6804 H             1 Polymer 
     135 H           -4.5648     4.8315    11.3248 H             1 Polymer 
     136 H           -5.8366     3.5519    11.2537 H             1 Polymer 
     137 S            7.1270     2.9948    14.7320 S             1 Polymer 
     138 C            6.3839     3.9283    15.8848 C             1 Polymer 
     139 C            6.9602     4.4547    17.0274 C             1 Polymer 
     140 O            8.2367     4.2316    17.4168 O             1 Polymer 
     141 C            9.3656     4.5925    16.7237 C             1 Polymer 
     142 C           10.6096     4.3343    17.6041 C             1 Polymer 
     143 C           10.5402     5.0782    18.9669 C             1 Polymer 
     144 C           10.4244     6.5992    18.8472 C             1 Polymer 
     145 C           10.8173     2.8235    17.8943 C             1 Polymer 
     146 C           10.9495     1.9195    16.6561 C             1 Polymer 
     147 C           12.0894     2.3511    15.7233 C             1 Polymer 
     148 C           12.2409     1.3802    14.5588 C             1 Polymer 
     149 C            6.1667     5.2634    17.8138 C             1 Polymer 
     150 C            6.6841     5.8822    18.9949 C             1 Polymer 
     151 C            5.6856     6.6055    19.7683 C             1 Polymer 
     152 S            4.1681     6.7479    18.7030 S             1 Polymer 
     153 C            4.8324     5.5335    17.5300 C             1 Polymer 
     154 C            4.2005     4.9123    16.3939 C             1 Polymer 
     155 O            2.8749     4.9977    16.0666 O             1 Polymer 
     156 C            1.8335     4.9311    16.9844 C             1 Polymer 
     157 C            0.4598     4.6157    16.3346 C             1 Polymer 
     158 C           -0.0196     5.8188    15.4900 C             1 Polymer 
     159 C           -1.4607     5.6770    14.9815 C             1 Polymer 
     160 C            0.4612     3.2867    15.5180 C             1 Polymer 
     161 C            0.8187     2.0344    16.3479 C             1 Polymer 
     162 C            0.7838     0.7296    15.5296 C             1 Polymer 
     163 C           -0.6118     0.3411    15.0363 C             1 Polymer 
     164 C            5.0382     4.1316    15.5604 C             1 Polymer 
     165 C            4.6733     3.4994    14.3564 C             1 Polymer 
     166 C            5.7656     2.8520    13.7668 C             1 Polymer 
     167 H            9.3083     5.6724    16.4777 H             1 Polymer 
     168 H            9.4366     4.0572    15.7596 H             1 Polymer 
     169 H           11.4993     4.7175    17.0612 H             1 Polymer 
     170 H           11.4685     4.8632    19.5404 H             1 Polymer 
     171 H            9.6879     4.6934    19.5666 H             1 Polymer 
     172 H           10.4116     7.0448    19.8648 H             1 Polymer 
     173 H           11.2907     7.0080    18.2876 H             1 Polymer 
     174 H            9.4866     6.9011    18.3403 H             1 Polymer 
     175 H            9.9694     2.4405    18.5053 H             1 Polymer 
     176 H           11.7442     2.7084    18.4991 H             1 Polymer 
     177 H            9.9926     1.8975    16.0932 H             1 Polymer 
     178 H           11.1448     0.8858    17.0174 H             1 Polymer 
     179 H           13.0452     2.3896    16.2893 H             1 Polymer 
     180 H           11.8771     3.3570    15.3045 H             1 Polymer 
     181 H           11.2985     1.3318    13.9725 H             1 Polymer 
     182 H           13.0587     1.7274    13.8930 H             1 Polymer 
     183 H           12.4922     0.3663    14.9357 H             1 Polymer 
     184 H            7.6929     5.7542    19.3456 H             1 Polymer 
     185 H            2.0268     4.0875    17.6636 H             1 Polymer 
     186 H            1.7751     5.8619    17.5848 H             1 Polymer 
     187 H           -0.2681     4.4978    17.1713 H             1 Polymer 
     188 H            0.6634     5.9836    14.6297 H             1 Polymer 
     189 H            0.0028     6.7246    16.1350 H             1 Polymer 
     190 H           -1.7625     6.6086    14.4595 H             1 Polymer 
     191 H           -2.1574     5.5099    15.8317 H             1 Polymer 
     192 H           -1.5645     4.8464    14.2550 H             1 Polymer 
     193 H            1.1625     3.3749    14.6606 H             1 Polymer 
     194 H           -0.5578     3.1249    15.1234 H             1 Polymer 
     195 H            0.1275     1.9406    17.2147 H             1 Polymer 
     196 H            1.8539     2.1329    16.7315 H             1 Polymer 
     197 H            1.1471    -0.0947    16.1816 H             1 Polymer 
     198 H            1.4735     0.8139    14.6634 H             1 Polymer 
     199 H           -0.5527    -0.6283    14.4965 H             1 Polymer 
     200 H           -1.3051     0.2227    15.8961 H             1 Polymer 
     201 H           -1.0203     1.0932    14.3331 H             1 Polymer 
     202 H            3.6892     3.5611    13.9099 H             1 Polymer 
     203 C            3.4959     4.1815    20.7129 C             1 Polymer 
     204 O            3.0267     4.5344    19.6613 O             1 Polymer 
     205 C            4.6830     4.7088    21.3235 C             1 Polymer 
     206 C            5.5102     5.9237    21.1426 C             1 Polymer 
     207 S            7.0424     5.5431    22.0782 S             1 Polymer 
     208 C            6.1629     4.2939    23.1239 C             1 Polymer 
     209 C            4.9186     3.9817    22.3821 C             1 Polymer 
     210 C            3.8000     3.0252    22.5157 C             1 Polymer 
     211 O            3.6236     2.2234    23.4186 O             1 Polymer 
     212 N            2.9527     3.2243    21.4782 N             1 Polymer 
     213 C            1.6606     2.6282    21.1901 C             1 Polymer 
     214 C            0.6270     3.7842    21.1318 C             1 Polymer 
     215 C           -0.7433     3.4347    20.5947 C             1 Polymer 
     216 C           -1.4860     2.4739    21.5143 C             1 Polymer 
     217 C           -2.9799     2.4022    21.1735 C             1 Polymer 
     218 C           -3.8528     3.4818    21.8629 C             1 Polymer 
     219 C           -3.5431     4.9515    21.5349 C             1 Polymer 
     220 C           -4.5334     5.8863    22.2230 C             1 Polymer 
     221 H            1.7144     2.1184    20.2023 H             1 Polymer 
     222 H            1.3772     1.8857    21.9655 H             1 Polymer 
     223 H            0.5486     4.2601    22.1331 H             1 Polymer 
     224 H            0.9488     4.5801    20.4400 H             1 Polymer 
     225 H           -0.6772     3.0206    19.5633 H             1 Polymer 
     226 H           -1.2665     4.3963    20.4937 H             1 Polymer 
     227 H           -1.3756     2.7475    22.5854 H             1 Polymer 
     228 H           -1.0130     1.4802    21.3588 H             1 Polymer 
     229 H           -3.1257     2.3841    20.0704 H             1 Polymer 
     230 H           -3.3524     1.4356    21.5728 H             1 Polymer 
     231 H           -4.9046     3.2741    21.5727 H             1 Polymer 
     232 H           -3.7653     3.3507    22.9638 H             1 Polymer 
     233 H           -3.5966     5.1152    20.4362 H             1 Polymer 
     234 H           -2.5409     5.2293    21.9201 H             1 Polymer 
     235 H           -4.4731     5.7615    23.3257 H             1 Polymer 
     236 H           -4.2873     6.9406    21.9739 H             1 Polymer 
     237 H           -5.5684     5.6714    21.8846 H             1 Polymer 
     238 S            7.3902     5.0668    25.4250 S             1 Polymer 
     239 C            6.6397     6.0132    26.5615 C             1 Polymer 
     240 C            7.2177     6.5594    27.6913 C             1 Polymer 
     241 O            8.4949     6.3468    28.0776 O             1 Polymer 
     242 C            9.6206     6.7023    27.3736 C             1 Polymer 
     243 C           10.8681     6.4436    28.2496 C             1 Polymer 
     244 C           10.8014     7.1912    29.6105 C             1 Polymer 
     245 C           10.6876     8.7122    29.4872 C             1 Polymer 
     246 C           11.0683     4.9322    28.5420 C             1 Polymer 
     247 C           11.1903     4.0239    27.3050 C             1 Polymer 
     248 C           12.3311     4.4434    26.3682 C             1 Polymer 
     249 C           12.4691     3.4696    25.2042 C             1 Polymer 
     250 C            6.4234     7.3737    28.4679 C             1 Polymer 
     251 C            6.9427     8.0099    29.6380 C             1 Polymer 
     252 C            5.9383     8.7130    30.4201 C             1 Polymer 
     253 S            4.4193     8.8518    29.3552 S             1 Polymer 
     254 C            5.0841     7.6332    28.1880 C             1 Polymer 
     255 C            4.4535     6.9981    27.0579 C             1 Polymer 
     256 O            3.1285     7.0769    26.7257 O             1 Polymer 
     257 C            2.0810     7.0217    27.6361 C             1 Polymer 
     258 C            0.7094     6.7100    26.9792 C             1 Polymer 
     259 C            0.2332     7.9152    26.1352 C             1 Polymer 
     260 C           -1.2078     7.7745    25.6251 C             1 Polymer 
     261 C            0.7127     5.3834    26.1584 C             1 Polymer 
     262 C            1.0816     4.1301    26.9818 C             1 Polymer 
     263 C            1.0464     2.8278    26.1595 C             1 Polymer 
     264 C           -0.3524     2.4323    25.6817 C             1 Polymer 
     265 C            5.2935     6.2098    26.2359 C             1 Polymer 
     266 C            4.9346     5.5632    25.0393 C             1 Polymer 
     267 C            6.0290     4.9135    24.4615 C             1 Polymer 
     268 H            9.5647     7.7822    27.1231 H             1 Polymer 
     269 H            9.6860     6.1632    26.4120 H             1 Polymer 
     270 H           11.7564     6.8222    27.7022 H             1 Polymer 
     271 H           11.7294     6.9754    30.1838 H             1 Polymer 
     272 H            9.9484     6.8103    30.2121 H             1 Polymer 
     273 H           10.6742     9.1604    30.5037 H             1 Polymer 
     274 H           11.5543     9.1186    28.9269 H             1 Polymer 
     275 H            9.7506     9.0147    28.9790 H             1 Polymer 
     276 H           10.2202     4.5550    29.1563 H             1 Polymer 
     277 H           11.9963     4.8133    29.1440 H             1 Polymer 
     278 H           10.2318     4.0077    26.7448 H             1 Polymer 
     279 H           11.3779     2.9894    27.6681 H             1 Polymer 
     280 H           13.2889     4.4727    26.9312 H             1 Polymer 
     281 H           12.1277     5.4511    25.9491 H             1 Polymer 
     282 H           11.5249     3.4311    24.6199 H             1 Polymer 
     283 H           13.2891     3.8067    24.5359 H             1 Polymer 
     284 H           12.7099     2.4531    25.5812 H             1 Polymer 
     285 H            7.9545     7.8914    29.9835 H             1 Polymer 
     286 H            2.2642     6.1788    28.3180 H             1 Polymer 
     287 H            2.0237     7.9548    28.2345 H             1 Polymer 
     288 H           -0.0209     6.5904    27.8133 H             1 Polymer 
     289 H            0.9175     8.0800    25.2767 H             1 Polymer 
     290 H            0.2552     8.8196    26.7818 H             1 Polymer 
     291 H           -1.5081     8.7068    25.1034 H             1 Polymer 
     292 H           -1.9054     7.6077    26.4744 H             1 Polymer 
     293 H           -1.3113     6.9443    24.8982 H             1 Polymer 
     294 H            1.4100     5.4770    25.2983 H             1 Polymer 
     295 H           -0.3074     5.2190    25.7673 H             1 Polymer 
     296 H            0.3982     4.0306    27.8540 H             1 Polymer 
     297 H            2.1198     4.2329    27.3566 H             1 Polymer 
     298 H            1.4220     2.0038    26.8050 H             1 Polymer 
     299 H            1.7260     2.9188    25.2857 H             1 Polymer 
     300 H           -0.2940     1.4650    25.1382 H             1 Polymer 
     301 H           -1.0344     2.3067    26.5496 H             1 Polymer 
     302 H           -0.7743     3.1844    24.9865 H             1 Polymer 
     303 H            3.9528     5.6214    24.5853 H             1 Polymer 
     304 C            3.7635     6.2650    31.3466 C             1 Polymer 
     305 O            3.2882     6.6284    30.3016 O             1 Polymer 
     306 C            4.9545     6.7865    31.9548 C             1 Polymer 
     307 C            5.7775     8.0060    31.7842 C             1 Polymer 
     308 S            7.3199     7.6107    32.6972 S             1 Polymer 
     309 C            6.4459     6.3607    33.7454 C             1 Polymer 
     310 C            5.1972     6.0498    33.0063 C             1 Polymer 
     311 C            4.0773     5.0930    33.1372 C             1 Polymer 
     312 O            3.9045     4.2845    34.0350 O             1 Polymer 
     313 N            3.2234     5.3015    32.1063 N             1 Polymer 
     314 C            1.9283     4.7088    31.8199 C             1 Polymer 
     315 C            0.8942     5.8656    31.7726 C             1 Polymer 
     316 C           -0.4794     5.5226    31.2372 C             1 Polymer 
     317 C           -1.2262     4.5639    32.1555 C             1 Polymer 
     318 C           -2.7210     4.4981    31.8145 C             1 Polymer 
     319 C           -3.5912     5.5809    32.5028 C             1 Polymer 
     320 C           -3.2794     7.0496    32.1725 C             1 Polymer 
     321 C           -4.2684     7.9871    32.8590 C             1 Polymer 
     322 H            1.9771     4.2058    30.8283 H             1 Polymer 
     323 H            1.6472     3.9609    32.5909 H             1 Polymer 
     324 H            0.8198     6.3363    32.7766 H             1 Polymer 
     325 H            1.2140     6.6648    31.0840 H             1 Polymer 
     326 H           -0.4172     5.1112    30.2044 H             1 Polymer 
     327 H           -0.9990     6.4864    31.1400 H             1 Polymer 
     328 H           -1.1152     4.8364    33.2267 H             1 Polymer 
     329 H           -0.7572     3.5685    31.9993 H             1 Polymer 
     330 H           -2.8668     4.4799    30.7114 H             1 Polymer 
     331 H           -3.0970     3.5331    32.2142 H             1 Polymer 
     332 H           -4.6436     5.3750    32.2131 H             1 Polymer 
     333 H           -3.5041     5.4511    33.6039 H             1 Polymer 
     334 H           -3.3326     7.2115    31.0735 H             1 Polymer 
     335 H           -2.2770     7.3268    32.5573 H             1 Polymer 
     336 H           -4.2085     7.8643    33.9619 H             1 Polymer 
     337 H           -4.0208     9.0407    32.6080 H             1 Polymer 
     338 H           -5.3039     7.7734    32.5209 H             1 Polymer 
     339 S            7.6769     7.2099    36.0255 S             1 Polymer 
     340 C            6.9019     8.1282    37.1697 C             1 Polymer 
     341 C            7.4621     8.7078    38.2988 C             1 Polymer 
     342 O            8.7457     8.5454    38.6962 O             1 Polymer 
     343 C            9.8868     8.8389    37.9894 C             1 Polymer 
     344 C           11.1186     8.5592    38.8850 C             1 Polymer 
     345 C           11.0405     9.3035    40.2467 C             1 Polymer 
     346 C           10.9457    10.8242    40.1263 C             1 Polymer 
     347 C           11.3006     7.0445    39.1784 C             1 Polymer 
     348 C           11.4364     6.1334    37.9444 C             1 Polymer 
     349 C           12.5890     6.5478    37.0190 C             1 Polymer 
     350 C           12.7358     5.5732    35.8564 C             1 Polymer 
     351 C            6.6274     9.4809    39.0789 C             1 Polymer 
     352 C            7.1081    10.1721    40.2379 C             1 Polymer 
     353 C            6.0437    10.8214    41.0034 C             1 Polymer 
     354 S            4.4873    10.7284    40.0165 S             1 Polymer 
     355 C            5.2715     9.6433    38.8147 C             1 Polymer 
     356 C            4.6712     8.9869    37.6944 C             1 Polymer 
     357 O            3.3358     8.9993    37.3941 O             1 Polymer 
     358 C            2.2946     9.0501    38.3109 C             1 Polymer 
     359 C            0.9233     8.7489    37.6592 C             1 Polymer 
     360 C            0.4794     9.9564    36.7998 C             1 Polymer 
     361 C           -0.9536     9.8356    36.2681 C             1 Polymer 
     362 C            0.9243     7.4238    36.8432 C             1 Polymer 
     363 C            1.3114     6.1759    37.6603 C             1 Polymer 
     364 C            1.3074     4.8846    36.8201 C             1 Polymer 
     365 C           -0.0788     4.4815    36.3122 C             1 Polymer 
     366 C            5.5419     8.2536    36.8582 C             1 Polymer 
     367 C            5.1966     7.5878    35.6695 C             1 Polymer 
     368 C            6.3116     6.9898    35.0784 C             1 Polymer 
     369 H            9.8648     9.9122    37.7117 H             1 Polymer 
     370 H            9.9470     8.2697    37.0453 H             1 Polymer 
     371 H           12.0207     8.9240    38.3503 H             1 Polymer 
     372 H           11.9560     9.0738    40.8348 H             1 Polymer 
     373 H           10.1695     8.9344    40.8323 H             1 Polymer 
     374 H           10.9214    11.2684    41.1443 H             1 Polymer 
     375 H           11.8260    11.2221    39.5813 H             1 Polymer 
     376 H           10.0192    11.1343    39.6037 H             1 Polymer 
     377 H           10.4419     6.6732    39.7813 H             1 Polymer 
     378 H           12.2200     6.9181    39.7929 H             1 Polymer 
     379 H           10.4848     6.1181    37.3730 H             1 Polymer 
     380 H           11.6175     5.0987    38.3110 H             1 Polymer 
     381 H           13.5413     6.5749    37.5913 H             1 Polymer 
     382 H           12.3926     7.5555    36.5968 H             1 Polymer 
     383 H           11.7968     5.5360    35.2637 H             1 Polymer 
     384 H           13.5620     5.9089    35.1949 H             1 Polymer 
     385 H           12.9718     4.5563    36.2353 H             1 Polymer 
     386 H            8.1278    10.1286    40.5866 H             1 Polymer 
     387 H            2.4552     8.2711    39.0745 H             1 Polymer 
     388 H            2.2481    10.0286    38.8265 H             1 Polymer 
     389 H            0.1863     8.6529    38.4891 H             1 Polymer 
     390 H            1.1799    10.1078    35.9511 H             1 Polymer 
     391 H            0.5041    10.8658    37.4403 H             1 Polymer 
     392 H           -1.2300    10.7708    35.7384 H             1 Polymer 
     393 H           -1.6656     9.6832    37.1080 H             1 Polymer 
     394 H           -1.0548     9.0026    35.5440 H             1 Polymer 
     395 H            1.6187     7.5218    35.9803 H             1 Polymer 
     396 H           -0.0970     7.2587    36.4547 H             1 Polymer 
     397 H            0.6246     6.0572    38.5268 H             1 Polymer 
     398 H            2.3451     6.2986    38.0446 H             1 Polymer 
     399 H            1.6849     4.0560    37.4582 H             1 Polymer 
     400 H            1.9987     4.9978    35.9574 H             1 Polymer 
     401 H           -0.0013     3.5243    35.7540 H             1 Polymer 
     402 H           -0.7742     4.3375    37.1662 H             1 Polymer 
     403 H           -0.4960     5.2399    35.6207 H             1 Polymer 
     404 H            4.2053     7.5938    35.2343 H             1 Polymer 
     405 C            4.4190     8.0048    41.8548 C             1 Polymer 
     406 O            4.1371     7.8741    40.6782 O             1 Polymer 
     407 C            5.6881     8.6050    42.3420 C             1 Polymer 
     408 C            5.9102    10.1016    42.3348 C             1 Polymer 
     409 S            7.3978    10.1741    43.4115 S             1 Polymer 
     410 C            6.3635     9.1847    44.4963 C             1 Polymer 
     411 C            5.4900     8.4801    43.7816 C             1 Polymer 
     412 C            4.2562     7.7433    44.0327 C             1 Polymer 
     413 O            3.7774     7.4706    45.1188 O             1 Polymer 
     414 N            3.6398     7.5316    42.8485 N             1 Polymer 
     415 C            2.3093     7.0042    42.6236 C             1 Polymer 
     416 C            1.4002     8.2055    42.2972 C             1 Polymer 
     417 C           -0.0096     7.8645    41.8211 C             1 Polymer 
     418 C           -0.7432     6.9081    42.7707 C             1 Polymer 
     419 C           -2.2280     6.7348    42.4133 C             1 Polymer 
     420 C           -3.1770     7.7425    43.0982 C             1 Polymer 
     421 C           -2.9413     9.2234    42.7789 C             1 Polymer 
     422 C           -3.9811    10.0964    43.4781 C             1 Polymer 
     423 H            2.3391     6.2702    41.7863 H             1 Polymer 
     424 H            1.9259     6.4931    43.5310 H             1 Polymer 
     425 H            1.3374     8.8316    43.2152 H             1 Polymer 
     426 H            1.8552     8.8322    41.4992 H             1 Polymer 
     427 H            0.0347     7.3992    40.8118 H             1 Polymer 
     428 H           -0.5340     8.8290    41.7033 H             1 Polymer 
     429 H           -0.6505     7.2080    43.8356 H             1 Polymer 
     430 H           -0.2409     5.9240    42.6454 H             1 Polymer 
     431 H           -2.3634     6.7085    41.3092 H             1 Polymer 
     432 H           -2.5435     5.7436    42.8051 H             1 Polymer 
     433 H           -4.2126     7.4737    42.7959 H             1 Polymer 
     434 H           -3.0945     7.6064    44.1994 H             1 Polymer 
     435 H           -3.0043     9.3897    41.6818 H             1 Polymer 
     436 H           -1.9477     9.5398    43.1562 H             1 Polymer 
     437 H           -3.9187     9.9598    44.5796 H             1 Polymer 
     438 H           -3.7922    11.1651    43.2441 H             1 Polymer 
     439 H           -5.0038     9.8309    43.1360 H             1 Polymer 
     440 S            7.7305     9.7495    46.8192 S             1 Polymer 
     441 C            6.9385    10.2174    48.2185 C             1 Polymer 
     442 C            7.4681    10.5767    49.4703 C             1 Polymer 
     443 O            8.7938    10.5698    49.7870 O             1 Polymer 
     444 C            9.8694    10.8497    48.9611 C             1 Polymer 
     445 C           11.2034    10.6596    49.7181 C             1 Polymer 
     446 C           11.2243    11.4291    51.0626 C             1 Polymer 
     447 C           11.0111    12.9347    50.9115 C             1 Polymer 
     448 C           11.5185     9.1610    49.9908 C             1 Polymer 
     449 C           11.6559     8.2568    48.7434 C             1 Polymer 
     450 C           12.7536     8.7245    47.7727 C             1 Polymer 
     451 C           12.9134     7.7536    46.6052 C             1 Polymer 
     452 C            6.5374    10.9605    50.4500 C             1 Polymer 
     453 C            6.8877    11.3934    51.7907 C             1 Polymer 
     454 C            5.7753    11.7627    52.5116 C             1 Polymer 
     455 S            4.2233    11.5812    51.6288 S             1 Polymer 
     456 C            5.1593    11.0026    50.2044 C             1 Polymer 
     457 C            4.6403    10.6268    48.9352 C             1 Polymer 
     458 O            3.3275    10.6418    48.5740 O             1 Polymer 
     459 C            2.2112    10.8229    49.3595 C             1 Polymer 
     460 C            0.9246    10.6382    48.5182 C             1 Polymer 
     461 C            0.6781    11.8893    47.6339 C             1 Polymer 
     462 C           -0.6778    11.8746    46.9175 C             1 Polymer 
     463 C            0.9684     9.3421    47.6575 C             1 Polymer 
     464 C            1.2882     8.0693    48.4634 C             1 Polymer 
     465 C            1.3489     6.8035    47.5943 C             1 Polymer 
     466 C            0.0094     6.4227    46.9687 C             1 Polymer 
     467 C            5.5627    10.2138    47.9667 C             1 Polymer 
     468 C            5.2249     9.7820    46.6767 C             1 Polymer 
     469 C            6.3444     9.4914    45.9159 C             1 Polymer 
     470 H            9.7785    11.8998    48.6135 H             1 Polymer 
     471 H            9.8988    10.2197    48.0635 H             1 Polymer 
     472 H           12.0192    11.0678    49.0848 H             1 Polymer 
     473 H           12.2145    11.2762    51.5450 H             1 Polymer 
     474 H           10.4466    11.0234    51.7462 H             1 Polymer 
     475 H           11.0829    13.4155    51.9096 H             1 Polymer 
     476 H           11.7881    13.3682    50.2477 H             1 Polymer 
     477 H           10.0044    13.1569    50.5021 H             1 Polymer 
     478 H           10.7286     8.7309    50.6449 H             1 Polymer 
     479 H           12.4825     9.1021    50.5432 H             1 Polymer 
     480 H           10.6884     8.1793    48.2059 H             1 Polymer 
     481 H           11.9114     7.2347    49.1006 H             1 Polymer 
     482 H           13.7236     8.7975    48.3107 H             1 Polymer 
     483 H           12.4964     9.7200    47.3550 H             1 Polymer 
     484 H           11.9632     7.6733    46.0353 H             1 Polymer 
     485 H           13.7070     8.1224    45.9208 H             1 Polymer 
     486 H           13.2049     6.7478    46.9753 H             1 Polymer 
     487 H            7.8991    11.4526    52.1707 H             1 Polymer 
     488 H            2.2226    10.0585    50.1642 H             1 Polymer 
     489 H            2.2081    11.8276    49.8321 H             1 Polymer 
     490 H            0.0810    10.5741    49.2408 H             1 Polymer 
     491 H            1.4911    12.0044    46.8844 H             1 Polymer 
     492 H            0.6812    12.7894    48.2874 H             1 Polymer 
     493 H           -0.8180    12.8295    46.3684 H             1 Polymer 
     494 H           -1.5016    11.7717    47.6563 H             1 Polymer 
     495 H           -0.7431    11.0525    46.1770 H             1 Polymer 
     496 H            1.7379     9.4561    46.8617 H             1 Polymer 
     497 H           -0.0166     9.2145    47.1713 H             1 Polymer 
     498 H            0.5422     7.9331    49.2746 H             1 Polymer 
     499 H            2.2940     8.1764    48.9207 H             1 Polymer 
     500 H            1.6816     5.9590    48.2351 H             1 Polymer 
     501 H            2.1001     6.9375    46.7940 H             1 Polymer 
     502 H            0.1310     5.4825    46.3906 H             1 Polymer 
     503 H           -0.7481     6.2594    47.7635 H             1 Polymer 
     504 H           -0.3482     7.2049    46.2706 H             1 Polymer 
     505 H            4.2129     9.7418    46.2968 H             1 Polymer 
     506 H            5.9580     1.8672    -1.6955 H             1 Polymer 
     507 H            5.8333    12.1465    53.5206 H             1 Polymer 
@<TRIPOS>BOND
       1        2        1 1
       2        3        1 1
       3       10        1 1
       4        4        3 1
       5        7        3 1
       6        5        4 1
       7      506        4 1
       8        6        5 1
       9        7        6 1
      10       65        6 1
      11        8        7 1
      12        9        8 1
      13       10        8 1
      14       11       10 1
      15       12       11 1
      16       19       11 1
      17       20       11 1
      18       13       12 1
      19       21       12 1
      20       22       12 1
      21       14       13 1
      22       23       13 1
      23       24       13 1
      24       15       14 1
      25       25       14 1
      26       26       14 1
      27       16       15 1
      28       27       15 1
      29       28       15 1
      30       17       16 1
      31       29       16 1
      32       30       16 1
      33       18       17 1
      34       31       17 1
      35       32       17 1
      36       33       18 1
      37       34       18 1
      38       35       18 1
      39       37       36 1
      40       65       36 1
      41       38       37 1
      42       63       37 1
      43       39       38 1
      44       48       38 1
      45       40       39 1
      46       41       40 1
      47       66       40 1
      48       67       40 1
      49       42       41 1
      50       44       41 1
      51       68       41 1
      52       43       42 1
      53       69       42 1
      54       70       42 1
      55       71       43 1
      56       72       43 1
      57       73       43 1
      58       45       44 1
      59       74       44 1
      60       75       44 1
      61       46       45 1
      62       76       45 1
      63       77       45 1
      64       47       46 1
      65       78       46 1
      66       79       46 1
      67       80       47 1
      68       81       47 1
      69       82       47 1
      70       49       48 1
      71       52       48 1
      72       50       49 1
      73       83       49 1
      74       51       50 1
      75      105       50 1
      76       52       51 1
      77       53       52 1
      78       54       53 1
      79       63       53 1
      80       55       54 1
      81       56       55 1
      82       84       55 1
      83       85       55 1
      84       57       56 1
      85       59       56 1
      86       86       56 1
      87       58       57 1
      88       87       57 1
      89       88       57 1
      90       89       58 1
      91       90       58 1
      92       91       58 1
      93       60       59 1
      94       92       59 1
      95       93       59 1
      96       61       60 1
      97       94       60 1
      98       95       60 1
      99       62       61 1
     100       96       61 1
     101       97       61 1
     102       98       62 1
     103       99       62 1
     104      100       62 1
     105       64       63 1
     106       65       64 1
     107      101       64 1
     108      103      102 1
     109      104      102 1
     110      111      102 1
     111      105      104 1
     112      108      104 1
     113      106      105 1
     114      107      106 1
     115      108      107 1
     116      166      107 1
     117      109      108 1
     118      110      109 1
     119      111      109 1
     120      112      111 1
     121      113      112 1
     122      120      112 1
     123      121      112 1
     124      114      113 1
     125      122      113 1
     126      123      113 1
     127      115      114 1
     128      124      114 1
     129      125      114 1
     130      116      115 1
     131      126      115 1
     132      127      115 1
     133      117      116 1
     134      128      116 1
     135      129      116 1
     136      118      117 1
     137      130      117 1
     138      131      117 1
     139      119      118 1
     140      132      118 1
     141      133      118 1
     142      134      119 1
     143      135      119 1
     144      136      119 1
     145      138      137 1
     146      166      137 1
     147      139      138 1
     148      164      138 1
     149      140      139 1
     150      149      139 1
     151      141      140 1
     152      142      141 1
     153      167      141 1
     154      168      141 1
     155      143      142 1
     156      145      142 1
     157      169      142 1
     158      144      143 1
     159      170      143 1
     160      171      143 1
     161      172      144 1
     162      173      144 1
     163      174      144 1
     164      146      145 1
     165      175      145 1
     166      176      145 1
     167      147      146 1
     168      177      146 1
     169      178      146 1
     170      148      147 1
     171      179      147 1
     172      180      147 1
     173      181      148 1
     174      182      148 1
     175      183      148 1
     176      150      149 1
     177      153      149 1
     178      151      150 1
     179      184      150 1
     180      152      151 1
     181      206      151 1
     182      153      152 1
     183      154      153 1
     184      155      154 1
     185      164      154 1
     186      156      155 1
     187      157      156 1
     188      185      156 1
     189      186      156 1
     190      158      157 1
     191      160      157 1
     192      187      157 1
     193      159      158 1
     194      188      158 1
     195      189      158 1
     196      190      159 1
     197      191      159 1
     198      192      159 1
     199      161      160 1
     200      193      160 1
     201      194      160 1
     202      162      161 1
     203      195      161 1
     204      196      161 1
     205      163      162 1
     206      197      162 1
     207      198      162 1
     208      199      163 1
     209      200      163 1
     210      201      163 1
     211      165      164 1
     212      166      165 1
     213      202      165 1
     214      204      203 1
     215      205      203 1
     216      212      203 1
     217      206      205 1
     218      209      205 1
     219      207      206 1
     220      208      207 1
     221      209      208 1
     222      267      208 1
     223      210      209 1
     224      211      210 1
     225      212      210 1
     226      213      212 1
     227      214      213 1
     228      221      213 1
     229      222      213 1
     230      215      214 1
     231      223      214 1
     232      224      214 1
     233      216      215 1
     234      225      215 1
     235      226      215 1
     236      217      216 1
     237      227      216 1
     238      228      216 1
     239      218      217 1
     240      229      217 1
     241      230      217 1
     242      219      218 1
     243      231      218 1
     244      232      218 1
     245      220      219 1
     246      233      219 1
     247      234      219 1
     248      235      220 1
     249      236      220 1
     250      237      220 1
     251      239      238 1
     252      267      238 1
     253      240      239 1
     254      265      239 1
     255      241      240 1
     256      250      240 1
     257      242      241 1
     258      243      242 1
     259      268      242 1
     260      269      242 1
     261      244      243 1
     262      246      243 1
     263      270      243 1
     264      245      244 1
     265      271      244 1
     266      272      244 1
     267      273      245 1
     268      274      245 1
     269      275      245 1
     270      247      246 1
     271      276      246 1
     272      277      246 1
     273      248      247 1
     274      278      247 1
     275      279      247 1
     276      249      248 1
     277      280      248 1
     278      281      248 1
     279      282      249 1
     280      283      249 1
     281      284      249 1
     282      251      250 1
     283      254      250 1
     284      252      251 1
     285      285      251 1
     286      253      252 1
     287      307      252 1
     288      254      253 1
     289      255      254 1
     290      256      255 1
     291      265      255 1
     292      257      256 1
     293      258      257 1
     294      286      257 1
     295      287      257 1
     296      259      258 1
     297      261      258 1
     298      288      258 1
     299      260      259 1
     300      289      259 1
     301      290      259 1
     302      291      260 1
     303      292      260 1
     304      293      260 1
     305      262      261 1
     306      294      261 1
     307      295      261 1
     308      263      262 1
     309      296      262 1
     310      297      262 1
     311      264      263 1
     312      298      263 1
     313      299      263 1
     314      300      264 1
     315      301      264 1
     316      302      264 1
     317      266      265 1
     318      267      266 1
     319      303      266 1
     320      305      304 1
     321      306      304 1
     322      313      304 1
     323      307      306 1
     324      310      306 1
     325      308      307 1
     326      309      308 1
     327      310      309 1
     328      368      309 1
     329      311      310 1
     330      312      311 1
     331      313      311 1
     332      314      313 1
     333      315      314 1
     334      322      314 1
     335      323      314 1
     336      316      315 1
     337      324      315 1
     338      325      315 1
     339      317      316 1
     340      326      316 1
     341      327      316 1
     342      318      317 1
     343      328      317 1
     344      329      317 1
     345      319      318 1
     346      330      318 1
     347      331      318 1
     348      320      319 1
     349      332      319 1
     350      333      319 1
     351      321      320 1
     352      334      320 1
     353      335      320 1
     354      336      321 1
     355      337      321 1
     356      338      321 1
     357      340      339 1
     358      368      339 1
     359      341      340 1
     360      366      340 1
     361      342      341 1
     362      351      341 1
     363      343      342 1
     364      344      343 1
     365      369      343 1
     366      370      343 1
     367      345      344 1
     368      347      344 1
     369      371      344 1
     370      346      345 1
     371      372      345 1
     372      373      345 1
     373      374      346 1
     374      375      346 1
     375      376      346 1
     376      348      347 1
     377      377      347 1
     378      378      347 1
     379      349      348 1
     380      379      348 1
     381      380      348 1
     382      350      349 1
     383      381      349 1
     384      382      349 1
     385      383      350 1
     386      384      350 1
     387      385      350 1
     388      352      351 1
     389      355      351 1
     390      353      352 1
     391      386      352 1
     392      354      353 1
     393      408      353 1
     394      355      354 1
     395      356      355 1
     396      357      356 1
     397      366      356 1
     398      358      357 1
     399      359      358 1
     400      387      358 1
     401      388      358 1
     402      360      359 1
     403      362      359 1
     404      389      359 1
     405      361      360 1
     406      390      360 1
     407      391      360 1
     408      392      361 1
     409      393      361 1
     410      394      361 1
     411      363      362 1
     412      395      362 1
     413      396      362 1
     414      364      363 1
     415      397      363 1
     416      398      363 1
     417      365      364 1
     418      399      364 1
     419      400      364 1
     420      401      365 1
     421      402      365 1
     422      403      365 1
     423      367      366 1
     424      368      367 1
     425      404      367 1
     426      406      405 1
     427      407      405 1
     428      414      405 1
     429      408      407 1
     430      411      407 1
     431      409      408 1
     432      410      409 1
     433      411      410 1
     434      469      410 1
     435      412      411 1
     436      413      412 1
     437      414      412 1
     438      415      414 1
     439      416      415 1
     440      423      415 1
     441      424      415 1
     442      417      416 1
     443      425      416 1
     444      426      416 1
     445      418      417 1
     446      427      417 1
     447      428      417 1
     448      419      418 1
     449      429      418 1
     450      430      418 1
     451      420      419 1
     452      431      419 1
     453      432      419 1
     454      421      420 1
     455      433      420 1
     456      434      420 1
     457      422      421 1
     458      435      421 1
     459      436      421 1
     460      437      422 1
     461      438      422 1
     462      439      422 1
     463      441      440 1
     464      469      440 1
     465      442      441 1
     466      467      441 1
     467      443      442 1
     468      452      442 1
     469      444      443 1
     470      445      444 1
     471      470      444 1
     472      471      444 1
     473      446      445 1
     474      448      445 1
     475      472      445 1
     476      447      446 1
     477      473      446 1
     478      474      446 1
     479      475      447 1
     480      476      447 1
     481      477      447 1
     482      449      448 1
     483      478      448 1
     484      479      448 1
     485      450      449 1
     486      480      449 1
     487      481      449 1
     488      451      450 1
     489      482      450 1
     490      483      450 1
     491      484      451 1
     492      485      451 1
     493      486      451 1
     494      453      452 1
     495      456      452 1
     496      454      453 1
     497      487      453 1
     498      455      454 1
     499      507      454 1
     500      456      455 1
     501      457      456 1
     502      458      457 1
     503      467      457 1
     504      459      458 1
     505      460      459 1
     506      488      459 1
     507      489      459 1
     508      461      460 1
     509      463      460 1
     510      490      460 1
     511      462      461 1
     512      491      461 1
     513      492      461 1
     514      493      462 1
     515      494      462 1
     516      495      462 1
     517      464      463 1
     518      496      463 1
     519      497      463 1
     520      465      464 1
     521      498      464 1
     522      499      464 1
     523      466      465 1
     524      500      465 1
     525      501      465 1
     526      502      466 1
     527      503      466 1
     528      504      466 1
     529      468      467 1
     530      469      468 1
     531      505      468 1
@<TRIPOS>SUBSTRUCTURE
       1 Polymer         1 RESIDUE    0 **** ROOT      0
